*Heading
** Job name: Post-buckling_purecompression Model name: Post-buckling_pure_compression
** Generated by: Abaqus/CAE 2021
*Preprint, echo=NO, model=NO, history=NO, contact=NO
**
** PARTS
**
*Part, name=Part-1
*End Part
**  
**
** ASSEMBLY
**
*Assembly, name=Assembly
**  
*Instance, name=Part-1-1, part=Part-1
*Node
      1,           0.,         100.,           0.
      2,           0.,         100.,          50.
      3,         100.,           0.,          50.
      4,         100.,           0.,           0.
      5,           0.,         100.,         100.
      6,        -100.,           0.,          50.
      7,        -100.,           0.,         100.
      8,           0.,        -100.,         100.
      9,           0.,        -100.,          50.
     10,         100.,           0.,         100.
     11,           0.,        -100.,           0.
     12,        -100.,           0.,           0.
     13,           0.,         100.,         1.25
     14,           0.,         100.,          2.5
     15,           0.,         100.,         3.75
     16,           0.,         100.,           5.
     17,           0.,         100.,         6.25
     18,           0.,         100.,          7.5
     19,           0.,         100.,         8.75
     20,           0.,         100.,          10.
** ... 32380 like lines cut
*Element, type=S4R
   1,    1,   13, 1513,  288
   2,   13,   14, 1514, 1513
   3,   14,   15, 1515, 1514
   4,   15,   16, 1516, 1515
   5,   16,   17, 1517, 1516
   6,   17,   18, 1518, 1517
   7,   18,   19, 1519, 1518
   8,   19,   20, 1520, 1519
   9,   20,   21, 1521, 1520
  10,   21,   22, 1522, 1521
  11,   22,   23, 1523, 1522
  12,   23,   24, 1524, 1523
  13,   24,   25, 1525, 1524
  14,   25,   26, 1526, 1525
  15,   26,   27, 1527, 1526
  16,   27,   28, 1528, 1527
  17,   28,   29, 1529, 1528
  18,   29,   30, 1530, 1529
  19,   30,   31, 1531, 1530
  20,   31,   32, 1532, 1531
** ... 31980 like lines cut
*Nset, nset=_PickedSet8, internal, generate
     1,  32400,      1
*Elset, elset=_PickedSet8, internal, generate
     1,  32000,      1
** Section: Section-1
*Shell Section, elset=_PickedSet8, material=Material-1
0.5, 5
*End Instance
**  
*Node
      1,           0., -6.12323379e-15,         100.
*Node
      2,           0., 6.12323379e-15,           0.
*Nset, nset=_PickedSet6, internal
 1,
*Nset, nset=_PickedSet7, internal, instance=Part-1-1
    5,    7,    8,   10,  466,  467,  468,  469,  470,  471,  472,  473,  474,  475,  476,  477
  478,  479,  480,  481,  482,  483,  484,  485,  486,  487,  488,  489,  490,  491,  492,  493
  494,  495,  496,  497,  498,  499,  500,  501,  502,  503,  504,  505,  506,  507,  508,  509
  510,  511,  512,  513,  514,  515,  516,  517,  518,  519,  520,  521,  522,  523,  524,  525
  526,  527,  528,  529,  530,  531,  532,  533,  534,  535,  536,  537,  538,  539,  540,  541
  542,  543,  544,  545,  546,  547,  548,  549,  550,  551,  552,  553,  554,  555,  556,  557
  558,  559,  560,  561,  562,  563,  564,  742,  743,  744,  745,  746,  747,  748,  749,  750
  751,  752,  753,  754,  755,  756,  757,  758,  759,  760,  761,  762,  763,  764,  765,  766
  767,  768,  769,  770,  771,  772,  773,  774,  775,  776,  777,  778,  779,  780,  781,  782
  783,  784,  785,  786,  787,  788,  789,  790,  791,  792,  793,  794,  795,  796,  797,  798
  799,  800,  801,  802,  803,  804,  805,  806,  807,  808,  809,  810,  811,  812,  813,  814
  815,  816,  817,  818,  819,  820,  821,  822,  823,  824,  825,  826,  827,  828,  829,  830
  831,  832,  833,  834,  835,  836,  837,  838,  839,  840, 1117, 1118, 1119, 1120, 1121, 1122
 1123, 1124, 1125, 1126, 1127, 1128, 1129, 1130, 1131, 1132, 1133, 1134, 1135, 1136, 1137, 1138
 1139, 1140, 1141, 1142, 1143, 1144, 1145, 1146, 1147, 1148, 1149, 1150, 1151, 1152, 1153, 1154
 1155, 1156, 1157, 1158, 1159, 1160, 1161, 1162, 1163, 1164, 1165, 1166, 1167, 1168, 1169, 1170
 1171, 1172, 1173, 1174, 1175, 1176, 1177, 1178, 1179, 1180, 1181, 1182, 1183, 1184, 1185, 1186
 1187, 1188, 1189, 1190, 1191, 1192, 1193, 1194, 1195, 1196, 1197, 1198, 1199, 1200, 1201, 1202
 1203, 1204, 1205, 1206, 1207, 1208, 1209, 1210, 1211, 1212, 1213, 1214, 1215, 1414, 1415, 1416
 1417, 1418, 1419, 1420, 1421, 1422, 1423, 1424, 1425, 1426, 1427, 1428, 1429, 1430, 1431, 1432
** ... 5 like lines cut
*Elset, elset=_PickedSet7, internal, instance=Part-1-1
  4001,  4041,  4081,  4121,  4161,  4201,  4241,  4281,  4321,  4361,  4401,  4441,  4481,  4521,  4561,  4601
  4641,  4681,  4721,  4761,  4801,  4841,  4881,  4921,  4961,  5001,  5041,  5081,  5121,  5161,  5201,  5241
  5281,  5321,  5361,  5401,  5441,  5481,  5521,  5561,  5601,  5641,  5681,  5721,  5761,  5801,  5841,  5881
  5921,  5961,  6001,  6041,  6081,  6121,  6161,  6201,  6241,  6281,  6321,  6361,  6401,  6441,  6481,  6521
  6561,  6601,  6641,  6681,  6721,  6761,  6801,  6841,  6881,  6921,  6961,  7001,  7041,  7081,  7121,  7161
  7201,  7241,  7281,  7321,  7361,  7401,  7441,  7481,  7521,  7561,  7601,  7641,  7681,  7721,  7761,  7801
  7841,  7881,  7921,  7961,  8001,  8041,  8081,  8121,  8161,  8201,  8241,  8281,  8321,  8361,  8401,  8441
  8481,  8521,  8561,  8601,  8641,  8681,  8721,  8761,  8801,  8841,  8881,  8921,  8961,  9001,  9041,  9081
  9121,  9161,  9201,  9241,  9281,  9321,  9361,  9401,  9441,  9481,  9521,  9561,  9601,  9641,  9681,  9721
  9761,  9801,  9841,  9881,  9921,  9961, 10001, 10041, 10081, 10121, 10161, 10201, 10241, 10281, 10321, 10361
 10401, 10441, 10481, 10521, 10561, 10601, 10641, 10681, 10721, 10761, 10801, 10841, 10881, 10921, 10961, 11001
 11041, 11081, 11121, 11161, 11201, 11241, 11281, 11321, 11361, 11401, 11441, 11481, 11521, 11561, 11601, 11641
 11681, 11721, 11761, 11801, 11841, 11881, 11921, 11961, 16040, 16080, 16120, 16160, 16200, 16240, 16280, 16320
 16360, 16400, 16440, 16480, 16520, 16560, 16600, 16640, 16680, 16720, 16760, 16800, 16840, 16880, 16920, 16960
 17000, 17040, 17080, 17120, 17160, 17200, 17240, 17280, 17320, 17360, 17400, 17440, 17480, 17520, 17560, 17600
 17640, 17680, 17720, 17760, 17800, 17840, 17880, 17920, 17960, 18000, 18040, 18080, 18120, 18160, 18200, 18240
 18280, 18320, 18360, 18400, 18440, 18480, 18520, 18560, 18600, 18640, 18680, 18720, 18760, 18800, 18840, 18880
 18920, 18960, 19000, 19040, 19080, 19120, 19160, 19200, 19240, 19280, 19320, 19360, 19400, 19440, 19480, 19520
 19560, 19600, 19640, 19680, 19720, 19760, 19800, 19840, 19880, 19920, 19960, 20000, 28040, 28080, 28120, 28160
 28200, 28240, 28280, 28320, 28360, 28400, 28440, 28480, 28520, 28560, 28600, 28640, 28680, 28720, 28760, 28800
** ... 5 like lines cut
*Nset, nset=_PickedSet8, internal
 2,
*Nset, nset=_PickedSet9, internal, instance=Part-1-1
    1,    4,   11,   12,  190,  191,  192,  193,  194,  195,  196,  197,  198,  199,  200,  201
  202,  203,  204,  205,  206,  207,  208,  209,  210,  211,  212,  213,  214,  215,  216,  217
  218,  219,  220,  221,  222,  223,  224,  225,  226,  227,  228,  229,  230,  231,  232,  233
  234,  235,  236,  237,  238,  239,  240,  241,  242,  243,  244,  245,  246,  247,  248,  249
  250,  251,  252,  253,  254,  255,  256,  257,  258,  259,  260,  261,  262,  263,  264,  265
  266,  267,  268,  269,  270,  271,  272,  273,  274,  275,  276,  277,  278,  279,  280,  281
  282,  283,  284,  285,  286,  287,  288, 1018, 1019, 1020, 1021, 1022, 1023, 1024, 1025, 1026
 1027, 1028, 1029, 1030, 1031, 1032, 1033, 1034, 1035, 1036, 1037, 1038, 1039, 1040, 1041, 1042
 1043, 1044, 1045, 1046, 1047, 1048, 1049, 1050, 1051, 1052, 1053, 1054, 1055, 1056, 1057, 1058
 1059, 1060, 1061, 1062, 1063, 1064, 1065, 1066, 1067, 1068, 1069, 1070, 1071, 1072, 1073, 1074
 1075, 1076, 1077, 1078, 1079, 1080, 1081, 1082, 1083, 1084, 1085, 1086, 1087, 1088, 1089, 1090
 1091, 1092, 1093, 1094, 1095, 1096, 1097, 1098, 1099, 1100, 1101, 1102, 1103, 1104, 1105, 1106
 1107, 1108, 1109, 1110, 1111, 1112, 1113, 1114, 1115, 1116, 1216, 1217, 1218, 1219, 1220, 1221
 1222, 1223, 1224, 1225, 1226, 1227, 1228, 1229, 1230, 1231, 1232, 1233, 1234, 1235, 1236, 1237
 1238, 1239, 1240, 1241, 1242, 1243, 1244, 1245, 1246, 1247, 1248, 1249, 1250, 1251, 1252, 1253
 1254, 1255, 1256, 1257, 1258, 1259, 1260, 1261, 1262, 1263, 1264, 1265, 1266, 1267, 1268, 1269
 1270, 1271, 1272, 1273, 1274, 1275, 1276, 1277, 1278, 1279, 1280, 1281, 1282, 1283, 1284, 1285
 1286, 1287, 1288, 1289, 1290, 1291, 1292, 1293, 1294, 1295, 1296, 1297, 1298, 1299, 1300, 1301
 1302, 1303, 1304, 1305, 1306, 1307, 1308, 1309, 1310, 1311, 1312, 1313, 1314, 1315, 1316, 1317
 1318, 1319, 1320, 1321, 1322, 1323, 1324, 1325, 1326, 1327, 1328, 1329, 1330, 1331, 1332, 1333
** ... 5 like lines cut
*Elset, elset=_PickedSet9, internal, instance=Part-1-1
     1,    41,    81,   121,   161,   201,   241,   281,   321,   361,   401,   441,   481,   521,   561,   601
   641,   681,   721,   761,   801,   841,   881,   921,   961,  1001,  1041,  1081,  1121,  1161,  1201,  1241
  1281,  1321,  1361,  1401,  1441,  1481,  1521,  1561,  1601,  1641,  1681,  1721,  1761,  1801,  1841,  1881
  1921,  1961,  2001,  2041,  2081,  2121,  2161,  2201,  2241,  2281,  2321,  2361,  2401,  2441,  2481,  2521
  2561,  2601,  2641,  2681,  2721,  2761,  2801,  2841,  2881,  2921,  2961,  3001,  3041,  3081,  3121,  3161
  3201,  3241,  3281,  3321,  3361,  3401,  3441,  3481,  3521,  3561,  3601,  3641,  3681,  3721,  3761,  3801
  3841,  3881,  3921,  3961, 12001, 12041, 12081, 12121, 12161, 12201, 12241, 12281, 12321, 12361, 12401, 12441
 12481, 12521, 12561, 12601, 12641, 12681, 12721, 12761, 12801, 12841, 12881, 12921, 12961, 13001, 13041, 13081
 13121, 13161, 13201, 13241, 13281, 13321, 13361, 13401, 13441, 13481, 13521, 13561, 13601, 13641, 13681, 13721
 13761, 13801, 13841, 13881, 13921, 13961, 14001, 14041, 14081, 14121, 14161, 14201, 14241, 14281, 14321, 14361
 14401, 14441, 14481, 14521, 14561, 14601, 14641, 14681, 14721, 14761, 14801, 14841, 14881, 14921, 14961, 15001
 15041, 15081, 15121, 15161, 15201, 15241, 15281, 15321, 15361, 15401, 15441, 15481, 15521, 15561, 15601, 15641
 15681, 15721, 15761, 15801, 15841, 15881, 15921, 15961, 20040, 20080, 20120, 20160, 20200, 20240, 20280, 20320
 20360, 20400, 20440, 20480, 20520, 20560, 20600, 20640, 20680, 20720, 20760, 20800, 20840, 20880, 20920, 20960
 21000, 21040, 21080, 21120, 21160, 21200, 21240, 21280, 21320, 21360, 21400, 21440, 21480, 21520, 21560, 21600
 21640, 21680, 21720, 21760, 21800, 21840, 21880, 21920, 21960, 22000, 22040, 22080, 22120, 22160, 22200, 22240
 22280, 22320, 22360, 22400, 22440, 22480, 22520, 22560, 22600, 22640, 22680, 22720, 22760, 22800, 22840, 22880
 22920, 22960, 23000, 23040, 23080, 23120, 23160, 23200, 23240, 23280, 23320, 23360, 23400, 23440, 23480, 23520
 23560, 23600, 23640, 23680, 23720, 23760, 23800, 23840, 23880, 23920, 23960, 24000, 24040, 24080, 24120, 24160
 24200, 24240, 24280, 24320, 24360, 24400, 24440, 24480, 24520, 24560, 24600, 24640, 24680, 24720, 24760, 24800
** ... 5 like lines cut
*Nset, nset=_PickedSet12, internal
 2,
*Nset, nset=_PickedSet13, internal
 1,
*Nset, nset=_PickedSet19, internal
 1,
*Nset, nset=_PickedSet21, internal
 1,
** Constraint: Constraint-1
*Rigid Body, ref node=_PickedSet6, tie nset=_PickedSet7
** Constraint: Constraint-2
*Rigid Body, ref node=_PickedSet8, tie nset=_PickedSet9
*End Assembly
** 
** MATERIALS
** 
*Material, name=Material-1
*Elastic
3500., 0.3
** 
** BOUNDARY CONDITIONS
** 
** Name: BC-1 Type: Symmetry/Antisymmetry/Encastre
*Boundary
_PickedSet12, ENCASTRE
** Name: BC-2 Type: Displacement/Rotation
*Boundary
_PickedSet13, 1, 1
_PickedSet13, 2, 2
_PickedSet13, 4, 4
_PickedSet13, 5, 5
** ----------------------------------------------------------------
*IMPERFECTION,FILE=Buckling_pure_compression,STEP=1
1,0.005
2,0.0025
3,0.00125
** 
** STEP: Post-buckling_loading
** 
*Step, name=Post-buckling_loading, nlgeom=YES, inc=10000
*Static, stabilize, factor=1e-08, allsdtol=0, continue=NO
0.001, 1., 1e-15, 0.01
** 
** BOUNDARY CONDITIONS
** 
** Name: BC-3 Type: Displacement/Rotation
*Boundary
_PickedSet19, 3, 3, -1.5
** 
** OUTPUT REQUESTS
** 
*Restart, write, frequency=0
** 
** FIELD OUTPUT: F-Output-1
** 
*Output, field, variable=PRESELECT
** 
** HISTORY OUTPUT: H-Output-1
** 
*Output, history, variable=PRESELECT
*End Step
** ----------------------------------------------------------------
** 
** STEP: Post-buckling_unloading
** 
*Step, name=Post-buckling_unloading, nlgeom=YES, inc=10000
*Static, stabilize, factor=1e-08, allsdtol=0, continue=NO
0.001, 1., 1e-15, 0.01
** 
** BOUNDARY CONDITIONS
** 
** Name: BC-1 Type: Symmetry/Antisymmetry/Encastre
*Boundary, op=NEW
_PickedSet12, ENCASTRE
** Name: BC-2 Type: Displacement/Rotation
*Boundary, op=NEW
_PickedSet13, 1, 1
_PickedSet13, 2, 2
_PickedSet13, 4, 4
_PickedSet13, 5, 5
** Name: BC-3 Type: Displacement/Rotation
*Boundary, op=NEW
** Name: BC-5 Type: Displacement/Rotation
*Boundary, op=NEW
_PickedSet21, 3, 3
** 
** OUTPUT REQUESTS
** 
*Restart, write, frequency=0
** 
** FIELD OUTPUT: F-Output-1, F-Output-2
** 
*Output, field, variable=PRESELECT
** 
** HISTORY OUTPUT: H-Output-1, H-Output-2
** 
*Output, history, variable=PRESELECT
*End Step
