*Heading
** Job name: Postbuckling_25%precompression_h02mm Model name: Postbuckling_25%precompression_h02mm
** Generated by: Abaqus/CAE 2021
*Preprint, echo=NO, model=NO, history=NO, contact=NO
**
** PARTS
**
*Part, name=Part-1
*End Part
**  
**
** ASSEMBLY
**
*Assembly, name=Assembly
**  
*Instance, name=Part-1-1, part=Part-1
*Node
      1,           0.,        -100.,           0.
      2,           0.,        -100.,         100.
      3,        -100.,           0.,         100.
      4,        -100.,           0.,           0.
      5,           0.,         100.,         100.
      6,           0.,         100.,           0.
      7,         100.,           0.,           0.
      8,         100.,           0.,         100.
      9,           0.,        -100.,         1.25
     10,           0.,        -100.,          2.5
     11,           0.,        -100.,         3.75
     12,           0.,        -100.,           5.
     13,           0.,        -100.,         6.25
     14,           0.,        -100.,          7.5
     15,           0.,        -100.,         8.75
     16,           0.,        -100.,          10.
     17,           0.,        -100.,        11.25
     18,           0.,        -100.,         12.5
     19,           0.,        -100.,        13.75
     20,           0.,        -100.,          15.
** ... 32380 like lines cut
*Element, type=S4R
   1,    1,    9, 1117,  364
   2,    9,   10, 1118, 1117
   3,   10,   11, 1119, 1118
   4,   11,   12, 1120, 1119
   5,   12,   13, 1121, 1120
   6,   13,   14, 1122, 1121
   7,   14,   15, 1123, 1122
   8,   15,   16, 1124, 1123
   9,   16,   17, 1125, 1124
  10,   17,   18, 1126, 1125
  11,   18,   19, 1127, 1126
  12,   19,   20, 1128, 1127
  13,   20,   21, 1129, 1128
  14,   21,   22, 1130, 1129
  15,   22,   23, 1131, 1130
  16,   23,   24, 1132, 1131
  17,   24,   25, 1133, 1132
  18,   25,   26, 1134, 1133
  19,   26,   27, 1135, 1134
  20,   27,   28, 1136, 1135
** ... 31980 like lines cut
*Nset, nset=_PickedSet6, internal, generate
     1,  32400,      1
*Elset, elset=_PickedSet6, internal, generate
     1,  32000,      1
** Section: Section-1
*Shell Section, elset=_PickedSet6, material=Material-1
0.5, 5
*End Instance
**  
*Node
      1,           0., -6.12323379e-15,         100.
*Node
      2,           0., 6.12323379e-15,           0.
*Nset, nset=_PickedSet6, internal
 1,
*Nset, nset=_PickedSet7, internal, instance=Part-1-1
    2,    3,    5,    8,   88,   89,   90,   91,   92,   93,   94,   95,   96,   97,   98,   99
  100,  101,  102,  103,  104,  105,  106,  107,  108,  109,  110,  111,  112,  113,  114,  115
  116,  117,  118,  119,  120,  121,  122,  123,  124,  125,  126,  127,  128,  129,  130,  131
  132,  133,  134,  135,  136,  137,  138,  139,  140,  141,  142,  143,  144,  145,  146,  147
  148,  149,  150,  151,  152,  153,  154,  155,  156,  157,  158,  159,  160,  161,  162,  163
  164,  165,  166,  167,  168,  169,  170,  171,  172,  173,  174,  175,  176,  177,  178,  179
  180,  181,  182,  183,  184,  185,  186,  543,  544,  545,  546,  547,  548,  549,  550,  551
  552,  553,  554,  555,  556,  557,  558,  559,  560,  561,  562,  563,  564,  565,  566,  567
  568,  569,  570,  571,  572,  573,  574,  575,  576,  577,  578,  579,  580,  581,  582,  583
  584,  585,  586,  587,  588,  589,  590,  591,  592,  593,  594,  595,  596,  597,  598,  599
  600,  601,  602,  603,  604,  605,  606,  607,  608,  609,  610,  611,  612,  613,  614,  615
  616,  617,  618,  619,  620,  621,  622,  623,  624,  625,  626,  627,  628,  629,  630,  631
  632,  633,  634,  635,  636,  637,  638,  639,  640,  641,  820,  821,  822,  823,  824,  825
  826,  827,  828,  829,  830,  831,  832,  833,  834,  835,  836,  837,  838,  839,  840,  841
  842,  843,  844,  845,  846,  847,  848,  849,  850,  851,  852,  853,  854,  855,  856,  857
  858,  859,  860,  861,  862,  863,  864,  865,  866,  867,  868,  869,  870,  871,  872,  873
  874,  875,  876,  877,  878,  879,  880,  881,  882,  883,  884,  885,  886,  887,  888,  889
  890,  891,  892,  893,  894,  895,  896,  897,  898,  899,  900,  901,  902,  903,  904,  905
  906,  907,  908,  909,  910,  911,  912,  913,  914,  915,  916,  917,  918,  919,  920,  921
  922,  923,  924,  925,  926,  927,  928,  929,  930,  931,  932,  933,  934,  935,  936,  937
** ... 5 like lines cut
*Elset, elset=_PickedSet7, internal, instance=Part-1-1
    80,   160,   240,   320,   400,   480,   560,   640,   720,   800,   880,   960,  1040,  1120,  1200,  1280
  1360,  1440,  1520,  1600,  1680,  1760,  1840,  1920,  2000,  2080,  2160,  2240,  2320,  2400,  2480,  2560
  2640,  2720,  2800,  2880,  2960,  3040,  3120,  3200,  3280,  3360,  3440,  3520,  3600,  3680,  3760,  3840
  3920,  4000,  4080,  4160,  4240,  4320,  4400,  4480,  4560,  4640,  4720,  4800,  4880,  4960,  5040,  5120
  5200,  5280,  5360,  5440,  5520,  5600,  5680,  5760,  5840,  5920,  6000,  6080,  6160,  6240,  6320,  6400
  6480,  6560,  6640,  6720,  6800,  6880,  6960,  7040,  7120,  7200,  7280,  7360,  7440,  7520,  7600,  7680
  7760,  7840,  7920,  8000,  8001,  8081,  8161,  8241,  8321,  8401,  8481,  8561,  8641,  8721,  8801,  8881
  8961,  9041,  9121,  9201,  9281,  9361,  9441,  9521,  9601,  9681,  9761,  9841,  9921, 10001, 10081, 10161
 10241, 10321, 10401, 10481, 10561, 10641, 10721, 10801, 10881, 10961, 11041, 11121, 11201, 11281, 11361, 11441
 11521, 11601, 11681, 11761, 11841, 11921, 12001, 12081, 12161, 12241, 12321, 12401, 12481, 12561, 12641, 12721
 12801, 12881, 12961, 13041, 13121, 13201, 13281, 13361, 13441, 13521, 13601, 13681, 13761, 13841, 13921, 14001
 14081, 14161, 14241, 14321, 14401, 14481, 14561, 14641, 14721, 14801, 14881, 14961, 15041, 15121, 15201, 15281
 15361, 15441, 15521, 15601, 15681, 15761, 15841, 15921, 16001, 16081, 16161, 16241, 16321, 16401, 16481, 16561
 16641, 16721, 16801, 16881, 16961, 17041, 17121, 17201, 17281, 17361, 17441, 17521, 17601, 17681, 17761, 17841
 17921, 18001, 18081, 18161, 18241, 18321, 18401, 18481, 18561, 18641, 18721, 18801, 18881, 18961, 19041, 19121
 19201, 19281, 19361, 19441, 19521, 19601, 19681, 19761, 19841, 19921, 20001, 20081, 20161, 20241, 20321, 20401
 20481, 20561, 20641, 20721, 20801, 20881, 20961, 21041, 21121, 21201, 21281, 21361, 21441, 21521, 21601, 21681
 21761, 21841, 21921, 22001, 22081, 22161, 22241, 22321, 22401, 22481, 22561, 22641, 22721, 22801, 22881, 22961
 23041, 23121, 23201, 23281, 23361, 23441, 23521, 23601, 23681, 23761, 23841, 23921, 24080, 24160, 24240, 24320
 24400, 24480, 24560, 24640, 24720, 24800, 24880, 24960, 25040, 25120, 25200, 25280, 25360, 25440, 25520, 25600
** ... 5 like lines cut
*Nset, nset=_PickedSet8, internal
 2,
*Nset, nset=_PickedSet9, internal, instance=Part-1-1
    1,    4,    6,    7,  266,  267,  268,  269,  270,  271,  272,  273,  274,  275,  276,  277
  278,  279,  280,  281,  282,  283,  284,  285,  286,  287,  288,  289,  290,  291,  292,  293
  294,  295,  296,  297,  298,  299,  300,  301,  302,  303,  304,  305,  306,  307,  308,  309
  310,  311,  312,  313,  314,  315,  316,  317,  318,  319,  320,  321,  322,  323,  324,  325
  326,  327,  328,  329,  330,  331,  332,  333,  334,  335,  336,  337,  338,  339,  340,  341
  342,  343,  344,  345,  346,  347,  348,  349,  350,  351,  352,  353,  354,  355,  356,  357
  358,  359,  360,  361,  362,  363,  364,  444,  445,  446,  447,  448,  449,  450,  451,  452
  453,  454,  455,  456,  457,  458,  459,  460,  461,  462,  463,  464,  465,  466,  467,  468
  469,  470,  471,  472,  473,  474,  475,  476,  477,  478,  479,  480,  481,  482,  483,  484
  485,  486,  487,  488,  489,  490,  491,  492,  493,  494,  495,  496,  497,  498,  499,  500
  501,  502,  503,  504,  505,  506,  507,  508,  509,  510,  511,  512,  513,  514,  515,  516
  517,  518,  519,  520,  521,  522,  523,  524,  525,  526,  527,  528,  529,  530,  531,  532
  533,  534,  535,  536,  537,  538,  539,  540,  541,  542,  642,  643,  644,  645,  646,  647
  648,  649,  650,  651,  652,  653,  654,  655,  656,  657,  658,  659,  660,  661,  662,  663
  664,  665,  666,  667,  668,  669,  670,  671,  672,  673,  674,  675,  676,  677,  678,  679
  680,  681,  682,  683,  684,  685,  686,  687,  688,  689,  690,  691,  692,  693,  694,  695
  696,  697,  698,  699,  700,  701,  702,  703,  704,  705,  706,  707,  708,  709,  710,  711
  712,  713,  714,  715,  716,  717,  718,  719,  720,  721,  722,  723,  724,  725,  726,  727
  728,  729,  730,  731,  732,  733,  734,  735,  736,  737,  738,  739,  740, 1018, 1019, 1020
 1021, 1022, 1023, 1024, 1025, 1026, 1027, 1028, 1029, 1030, 1031, 1032, 1033, 1034, 1035, 1036
** ... 5 like lines cut
*Elset, elset=_PickedSet9, internal, instance=Part-1-1
     1,    81,   161,   241,   321,   401,   481,   561,   641,   721,   801,   881,   961,  1041,  1121,  1201
  1281,  1361,  1441,  1521,  1601,  1681,  1761,  1841,  1921,  2001,  2081,  2161,  2241,  2321,  2401,  2481
  2561,  2641,  2721,  2801,  2881,  2961,  3041,  3121,  3201,  3281,  3361,  3441,  3521,  3601,  3681,  3761
  3841,  3921,  4001,  4081,  4161,  4241,  4321,  4401,  4481,  4561,  4641,  4721,  4801,  4881,  4961,  5041
  5121,  5201,  5281,  5361,  5441,  5521,  5601,  5681,  5761,  5841,  5921,  6001,  6081,  6161,  6241,  6321
  6401,  6481,  6561,  6641,  6721,  6801,  6881,  6961,  7041,  7121,  7201,  7281,  7361,  7441,  7521,  7601
  7681,  7761,  7841,  7921,  8080,  8160,  8240,  8320,  8400,  8480,  8560,  8640,  8720,  8800,  8880,  8960
  9040,  9120,  9200,  9280,  9360,  9440,  9520,  9600,  9680,  9760,  9840,  9920, 10000, 10080, 10160, 10240
 10320, 10400, 10480, 10560, 10640, 10720, 10800, 10880, 10960, 11040, 11120, 11200, 11280, 11360, 11440, 11520
 11600, 11680, 11760, 11840, 11920, 12000, 12080, 12160, 12240, 12320, 12400, 12480, 12560, 12640, 12720, 12800
 12880, 12960, 13040, 13120, 13200, 13280, 13360, 13440, 13520, 13600, 13680, 13760, 13840, 13920, 14000, 14080
 14160, 14240, 14320, 14400, 14480, 14560, 14640, 14720, 14800, 14880, 14960, 15040, 15120, 15200, 15280, 15360
 15440, 15520, 15600, 15680, 15760, 15840, 15920, 16000, 16080, 16160, 16240, 16320, 16400, 16480, 16560, 16640
 16720, 16800, 16880, 16960, 17040, 17120, 17200, 17280, 17360, 17440, 17520, 17600, 17680, 17760, 17840, 17920
 18000, 18080, 18160, 18240, 18320, 18400, 18480, 18560, 18640, 18720, 18800, 18880, 18960, 19040, 19120, 19200
 19280, 19360, 19440, 19520, 19600, 19680, 19760, 19840, 19920, 20000, 20080, 20160, 20240, 20320, 20400, 20480
 20560, 20640, 20720, 20800, 20880, 20960, 21040, 21120, 21200, 21280, 21360, 21440, 21520, 21600, 21680, 21760
 21840, 21920, 22000, 22080, 22160, 22240, 22320, 22400, 22480, 22560, 22640, 22720, 22800, 22880, 22960, 23040
 23120, 23200, 23280, 23360, 23440, 23520, 23600, 23680, 23760, 23840, 23920, 24000, 24001, 24081, 24161, 24241
 24321, 24401, 24481, 24561, 24641, 24721, 24801, 24881, 24961, 25041, 25121, 25201, 25281, 25361, 25441, 25521
** ... 5 like lines cut
*Nset, nset=_PickedSet11, internal
 2,
*Nset, nset=_PickedSet12, internal
 1,
*Nset, nset=_PickedSet15, internal
 1,
*Nset, nset=_PickedSet17, internal
 1,
*Nset, nset=_PickedSet18, internal
 1,
** Constraint: Constraint-1
*Rigid Body, ref node=_PickedSet6, tie nset=_PickedSet7
** Constraint: Constraint-2
*Rigid Body, ref node=_PickedSet8, tie nset=_PickedSet9
*End Assembly
** 
** MATERIALS
** 
*Material, name=Material-1
*Elastic
3500., 0.3
** 
** BOUNDARY CONDITIONS
** 
** Name: BC-1 Type: Symmetry/Antisymmetry/Encastre
*Boundary
_PickedSet11, ENCASTRE
** Name: BC-2 Type: Displacement/Rotation
*Boundary
_PickedSet12, 1, 1
_PickedSet12, 2, 2
_PickedSet12, 4, 4
_PickedSet12, 5, 5
** ----------------------------------------------------------------
*IMPERFECTION,FILE=Buckling_25%pretension_h05mm,STEP=2
1,0.005
2,0.0025
3,0.00125
** 
** STEP: precompression
** 
*Step, name=precompression, nlgeom=YES, inc=10000
*Static, stabilize, factor=1e-08, allsdtol=0, continue=NO
0.05, 1., 1e-5, 0.05
** 
** LOADS
** 
** Name: Load-1   Type: Concentrated force
*Cload
_PickedSet15, 3, 840.55
** 
** OUTPUT REQUESTS
** 
*Restart, write, frequency=0
** 
** FIELD OUTPUT: F-Output-2
** 
*Output, field, variable=PRESELECT
** 
** HISTORY OUTPUT: H-Output-1
** 
*Output, history, variable=PRESELECT
*End Step
** ----------------------------------------------------------------
** 
** STEP: loading
** 
*Step, name=loading, nlgeom=YES, inc=10000
*Static, stabilize, factor=1e-08, allsdtol=0, continue=NO
0.001, 1., 1e-15, 0.01
** 
** BOUNDARY CONDITIONS
** 
** Name: BC-3 Type: Displacement/Rotation
*Boundary
_PickedSet17, 6, 6, 0.025
** 
** OUTPUT REQUESTS
** 
*Restart, write, frequency=0
** 
** FIELD OUTPUT: F-Output-2
** 
*Output, field, variable=PRESELECT
** 
** HISTORY OUTPUT: H-Output-1
** 
*Output, history, variable=PRESELECT
*End Step
** ----------------------------------------------------------------
